  Page 1                                    Sun Oct 21 14:31:34 2018

  ******************************************************************
  *                           E P A N E T                          *
  *                   Hydraulic and Water Quality                  *
  *                   Analysis for Pipe Networks                   *
  *                         Version 2.00.12                        *
  ******************************************************************
  
  Analysis begun Sun Oct 21 14:31:34 2018

   
  Hydraulic Status:
  -----------------------------------------------------------------------
     0:00:00: Balanced after 4 trials
     0:00:00: Reservoir 9 is emptying
   
   
  Hydraulic Status:
  -----------------------------------------------------------------------
     0:00:00: Balanced after 2 trials
     0:00:00: Reservoir 9 is emptying
   
   
  Hydraulic Status:
  -----------------------------------------------------------------------
     0:00:00: Balanced after 2 trials
     0:00:00: Reservoir 9 is emptying
   
   
  Hydraulic Status:
  -----------------------------------------------------------------------
     0:00:00: Balanced after 2 trials
     0:00:00: Reservoir 9 is emptying
   
   
  Hydraulic Status:
  -----------------------------------------------------------------------
     0:00:00: Balanced after 2 trials
     0:00:00: Reservoir 9 is emptying
   
   
  Hydraulic Status:
  -----------------------------------------------------------------------
     0:00:00: Balanced after 2 trials
     0:00:00: Reservoir 9 is emptying
   
   
  Hydraulic Status:
  -----------------------------------------------------------------------
     0:00:00: Balanced after 1 trials
     0:00:00: Reservoir 9 is emptying
   
   
  Hydraulic Status:
  -----------------------------------------------------------------------
     0:00:00: Balanced after 1 trials
     0:00:00: Reservoir 9 is emptying
   
   
  Hydraulic Status:
  -----------------------------------------------------------------------
     0:00:00: Balanced after 1 trials
     0:00:00: Reservoir 9 is emptying
   
   
  Hydraulic Status:
  -----------------------------------------------------------------------
     0:00:00: Balanced after 1 trials
     0:00:00: Reservoir 9 is emptying
   
   
  Hydraulic Status:
  -----------------------------------------------------------------------
     0:00:00: Balanced after 1 trials
     0:00:00: Reservoir 9 is emptying
   
   
  Hydraulic Status:
  -----------------------------------------------------------------------
     0:00:00: Balanced after 1 trials
     0:00:00: Reservoir 9 is emptying
   
   
  Hydraulic Status:
  -----------------------------------------------------------------------
     0:00:00: Balanced after 1 trials
     0:00:00: Reservoir 9 is emptying
   
   
  Hydraulic Status:
  -----------------------------------------------------------------------
     0:00:00: Balanced after 1 trials
     0:00:00: Reservoir 9 is emptying
   
   
  Hydraulic Status:
  -----------------------------------------------------------------------
     0:00:00: Balanced after 1 trials
     0:00:00: Reservoir 9 is emptying
   
   
  Hydraulic Status:
  -----------------------------------------------------------------------
     0:00:00: Balanced after 1 trials
     0:00:00: Reservoir 9 is emptying
   
   
  Hydraulic Status:
  -----------------------------------------------------------------------
     0:00:00: Balanced after 1 trials
     0:00:00: Reservoir 9 is emptying
   
   
  Hydraulic Status:
  -----------------------------------------------------------------------
     0:00:00: Balanced after 1 trials
     0:00:00: Reservoir 9 is emptying
   
   
  Hydraulic Status:
  -----------------------------------------------------------------------
     0:00:00: Balanced after 1 trials
     0:00:00: Reservoir 9 is emptying
   
   
  Hydraulic Status:
  -----------------------------------------------------------------------
     0:00:00: Balanced after 1 trials
     0:00:00: Reservoir 9 is emptying
   
   
  Hydraulic Status:
  -----------------------------------------------------------------------
     0:00:00: Balanced after 1 trials
     0:00:00: Reservoir 9 is emptying
   
   
  Hydraulic Status:
  -----------------------------------------------------------------------
     0:00:00: Balanced after 1 trials
     0:00:00: Reservoir 9 is emptying
   
   
  Hydraulic Status:
  -----------------------------------------------------------------------
     0:00:00: Balanced after 1 trials
     0:00:00: Reservoir 9 is emptying
   
   
  Hydraulic Status:
  -----------------------------------------------------------------------
     0:00:00: Balanced after 1 trials
     0:00:00: Reservoir 9 is emptying
   
   
  Hydraulic Status:
  -----------------------------------------------------------------------
     0:00:00: Balanced after 1 trials
     0:00:00: Reservoir 9 is emptying
   
   
  Hydraulic Status:
  -----------------------------------------------------------------------
     0:00:00: Balanced after 1 trials
     0:00:00: Reservoir 9 is emptying
   
   
  Hydraulic Status:
  -----------------------------------------------------------------------
     0:00:00: Balanced after 1 trials
     0:00:00: Reservoir 9 is emptying
   
   
  Hydraulic Status:
  -----------------------------------------------------------------------
     0:00:00: Balanced after 1 trials
     0:00:00: Reservoir 9 is emptying
   
   
  Hydraulic Status:
  -----------------------------------------------------------------------
     0:00:00: Balanced after 1 trials
     0:00:00: Reservoir 9 is emptying
   
  Analysis ended Sun Oct 21 14:31:44 2018
